Metadata-Version: 2.1
Name: sfrmaker
Version: 0.7.0
Summary: Python package for rapid creation of streamflow routing networks.
Home-page: https://github.com/aleaf/sfrmaker
Author: USGS
Author-email: aleaf@usgs.gov
License: BSD (3-clause)
Platform: UNKNOWN
Classifier: Development Status :: 2 - Pre-Alpha
Classifier: Natural Language :: English
Classifier: Programming Language :: Python :: 3
Requires-Python: >=3.6
Requires-Dist: pyyaml
Requires-Dist: numpy
Requires-Dist: pandas
Requires-Dist: gdal
Requires-Dist: fiona
Requires-Dist: rasterio (>=1.0)
Requires-Dist: rasterstats
Requires-Dist: shapely
Requires-Dist: pyproj (>=2.2)
Requires-Dist: rtree
Requires-Dist: flopy
Requires-Dist: gis-utils
Requires-Dist: modflow-export

SFRmaker is a python package for automating construction of stream flow routing networks from hydrography data. Hydrography are input from a polyline shapefile and intersected with a structured grid defined using a shapefile or a Flopy `StructuredGrid` instance. Attribute data are supplied via `.dbf` files (NHDPlus input option) or via specified fields in the hydrography shapefile. Line fragments representing intersections between the flowlines and model grid cells are converted to SFR reaches using the supplied attribute data. MODFLOW-NWT/2005 or MODFLOW-6 SFR package input can then be written, along with shapefiles for visualizing the SFR package dataset.


